[General]
repeat = 1
SN.deployment = "center"
SN.field_x = 10
SN.field_y = 10
SN.node[*].Application.collectTraceInfo = true
SN.node[*].Application.rng-0	 = 3
SN.node[*].ApplicationName = "Oss7Test"
SN.node[*].Communication.MAC.collectTraceInfo = true
SN.node[*].Communication.MAC.phyDelayForValidCs = 0.18
SN.node[*].Communication.MAC.phyTxTime = 5.62
SN.node[*].Communication.MAC.rng-0 = 4
SN.node[*].Communication.MAC.rng-1 = 5
SN.node[*].Communication.MACProtocolName = "BypassMAC"
SN.node[*].Communication.Radio.RadioParametersFile = "../Parameters/Radio/CC1000.txt"
SN.node[*].Communication.Radio.TxOutputPower = "0dBm"
SN.node[*].Communication.Radio.carrierFreq = 433.164
SN.node[*].Communication.Radio.collectTraceInfo = false
SN.node[*].Communication.Radio.mode = "d7"
SN.node[*].Communication.Radio.rng-0 = 2
SN.node[*].MobilityManager.rng-0 = 0
SN.node[*].MobilityManagerName = "NoMobilityManager"
SN.node[*].ResourceManager.rng-0 = 6
SN.node[*].ResourceManager.sigmaCPUClockDrift = 0
SN.node[*].SensorManager.rng-0	  = 7
SN.node[*].SensorManager.rng-1	  = 8
SN.node[1..].Application.constantDataPayload = 10
SN.node[1..].Application.packet_interval_s = 600
SN.numNodes = 1
SN.physicalProcess[*].rng-0 	 = 10
SN.wirelessChannel.bidirectionalSigma = 0
SN.wirelessChannel.onlyStaticNodes = true
SN.wirelessChannel.rng-0 	 = 1
SN.wirelessChannel.rng-2 	 = 9
SN.wirelessChannel.sigma = 0
cmdenv-event-banners = false
cmdenv-express-mode = true
cmdenv-interactive = false
cmdenv-module-messages = true
cmdenv-performance-display = false
ned-path = ../../src
network = SN
num-rngs = 11
output-scalar-file = Castalia-statistics.sca
output-vector-file = Castalia-statistics.vec
sim-time-limit = 10minutes
